   3
 units: A
      Na                  -1.651046   -1.519127   -1.770619
      Na                  -0.178180   -0.818808   -2.099451
      Na                   1.364697    0.914070    0.408771
   3
 units: A
      Na                  -1.814247   -1.595398   -1.730332
      Na                  -0.010452   -0.738736   -2.136043
      Na                   1.360170    0.910270    0.405078
   3
 units: A
      Na                  -1.814247   -1.595398   -1.730332
      Na                  -0.010452   -0.738736   -2.136043
      Na                   1.360170    0.910270    0.405078
   3
 units: A
      Na                  -2.140651   -1.747941   -1.649760
      Na                   0.325006   -0.578593   -2.209228
      Na                   1.351115    0.902669    0.397692
   3
 units: A
      Na                  -2.140651   -1.747941   -1.649760
      Na                   0.325006   -0.578593   -2.209228
      Na                   1.351115    0.902669    0.397692
   3
 units: A
      Na                  -2.793459   -2.053025   -1.488614
      Na                   0.995921   -0.258307   -2.355597
      Na                   1.333007    0.887468    0.382921
   3
 units: A
      Na                  -2.382548   -1.860989   -1.590047
      Na                   0.573612   -0.459911   -2.263465
      Na                   1.344405    0.897036    0.392219
   3
 units: A
      Na                  -2.382548   -1.860989   -1.590047
      Na                   0.573612   -0.459911   -2.263465
      Na                   1.344405    0.897036    0.392219
   3
 units: A
      Na                  -2.321815   -1.832606   -1.605039
      Na                   0.511195   -0.489709   -2.249848
      Na                   1.346090    0.898450    0.393593
   3
 units: A
      Na                  -2.321815   -1.832606   -1.605039
      Na                   0.511195   -0.489709   -2.249848
      Na                   1.346090    0.898450    0.393593
   3
 units: A
      Na                  -2.289490   -1.817499   -1.613019
      Na                   0.477973   -0.505569   -2.242600
      Na                   1.346987    0.899203    0.394325
   3
 units: A
      Na                  -2.289490   -1.817499   -1.613019
      Na                   0.477973   -0.505569   -2.242600
      Na                   1.346987    0.899203    0.394325
   3
 units: A
      Na                  -2.232931   -1.791067   -1.626980
      Na                   0.419845   -0.533318   -2.229918
      Na                   1.348556    0.900520    0.395604
   3
 units: A
      Na                  -2.277364   -1.811832   -1.616012
      Na                   0.465511   -0.511517   -2.239881
      Na                   1.347323    0.899485    0.394599
   3
 units: A
      Na                  -2.301773   -1.823240   -1.609987
      Na                   0.490597   -0.499542   -2.245354
      Na                   1.346646    0.898917    0.394047
   3
 units: A
      Na                  -2.294157   -1.819680   -1.611867
      Na                   0.482770   -0.503278   -2.243646
      Na                   1.346857    0.899094    0.394219
   3
 units: A
      Na                  -2.284882   -1.815346   -1.614156
      Na                   0.473237   -0.507829   -2.241567
      Na                   1.347114    0.899310    0.394429
   3
 units: A
      Na                  -2.289819   -1.817653   -1.612938
      Na                   0.478311   -0.505407   -2.242673
      Na                   1.346977    0.899195    0.394317
   3
 units: A
      Na                  -2.289819   -1.817653   -1.612938
      Na                   0.478311   -0.505407   -2.242673
      Na                   1.346977    0.899195    0.394317
   3
 units: A
      Na                  -2.289819   -1.817653   -1.612938
      Na                   0.478311   -0.505407   -2.242673
      Na                   1.346977    0.899195    0.394317
   3
 units: A
      Na                  -2.135294   -1.742605   -1.643010
      Na                   0.330202   -0.575773   -2.209384
      Na                   1.340578    0.894524    0.391104
   3
 units: A
      Na                  -2.286171   -1.815887   -1.613664
      Na                   0.474793   -0.507079   -2.241885
      Na                   1.346849    0.899102    0.394255
   3
 units: A
      Na                  -2.289487   -1.817498   -1.613019
      Na                   0.477971   -0.505570   -2.242599
      Na                   1.346986    0.899203    0.394324
   3
 units: A
      Na                  -2.289490   -1.817499   -1.613019
      Na                   0.477973   -0.505569   -2.242600
      Na                   1.346987    0.899203    0.394325
   3
 units: A
      Na                  -2.289490   -1.817499   -1.613019
      Na                   0.477973   -0.505569   -2.242600
      Na                   1.346987    0.899203    0.394325
