   3
 units: A
      Na                  -2.289490   -1.817499   -1.613019
      Na                   0.477973   -0.505569   -2.242600
      Na                   1.346987    0.899203    0.394325
   3
 units: A
      Na                  -2.127379   -1.709813   -1.562055
      Na                   0.431777   -0.523801   -2.221533
      Na                   1.231053    0.809764    0.322330
   3
 units: A
      Na                  -2.248123   -1.790020   -1.600014
      Na                   0.466185   -0.510221   -2.237224
      Na                   1.317404    0.876380    0.375954
   3
 units: A
      Na                  -2.248123   -1.790020   -1.600014
      Na                   0.466185   -0.510221   -2.237224
      Na                   1.317404    0.876380    0.375954
   3
 units: A
      Na                  -2.246789   -1.789133   -1.599595
      Na                   0.465805   -0.510371   -2.237051
      Na                   1.316449    0.875644    0.375361
   3
 units: A
      Na                  -2.246789   -1.789133   -1.599595
      Na                   0.465805   -0.510371   -2.237051
      Na                   1.316449    0.875644    0.375361
